EPRI_Ckt7_DER_Project/electricdss-code-r4133-trunk-Distrib-EPRITestCircuits-ckt7/ckt7_VLN_Node.Txt

LINE-GROUND and LINE-LINE VOLTAGES BY BUS & NODE

Bus           Node    VLN (kV)   Angle      pu     Base kV    Node-Node   VLL (kV)  Angle      pu

SOURCEBUS ... 1       64.377 /_   -9.0    0.9696   115.000        1-2     111.51 /_   21.0   0.96963
   -          2       64.386 /_ -129.0   0.96973   115.000        2-3     111.53 /_  -99.0    0.9698
   -          3       64.388 /_  111.0   0.96977   115.000        3-1     111.51 /_  141.0   0.96966
CKT7 ........ 1       6.9718 /_  -39.3   0.96837    12.470        1-2     12.075 /_   -9.3    0.9683
   -          2       6.9716 /_ -159.3   0.96834    12.470        2-3     12.076 /_ -129.2   0.96844
   -          3       6.9728 /_   80.7   0.96851    12.470        3-1     12.077 /_  110.7   0.96847
318405 ...... 1       6.9718 /_  -39.3   0.96837    12.470        1-2     12.075 /_   -9.3    0.9683
   -          2       6.9716 /_ -159.3   0.96834    12.470        2-3     12.076 /_ -129.2   0.96844
   -          3       6.9728 /_   80.7   0.96851    12.470        3-1     12.077 /_  110.7   0.96847
318412 ...... 1       6.9718 /_  -39.3   0.96837    12.470        1-2     12.075 /_   -9.3    0.9683
   -          2       6.9716 /_ -159.3   0.96834    12.470        2-3     12.076 /_ -129.2   0.96844
   -          3       6.9728 /_   80.7   0.96851    12.470        3-1     12.077 /_  110.7   0.96847
318414 ...... 1       6.9718 /_  -39.3   0.96837    12.470        1-2     12.075 /_   -9.3    0.9683
   -          2       6.9716 /_ -159.3   0.96834    12.470        2-3     12.076 /_ -129.2   0.96844
   -          3       6.9728 /_   80.7   0.96851    12.470        3-1     12.077 /_  110.7   0.96847
157345 ...... 1       6.9634 /_  -39.4   0.96719    12.470        1-2     12.063 /_   -9.4   0.96734
   -          2       6.9677 /_ -159.4   0.96779    12.470        2-3     12.066 /_ -129.4   0.96759
   -          3        6.965 /_   80.6   0.96742    12.470        3-1     12.064 /_  110.6   0.96748
157346 ...... 1       6.9634 /_  -39.4    0.9672    12.470        1-2     12.063 /_   -9.4   0.96734
   -          2       6.9677 /_ -159.4    0.9678    12.470        2-3     12.066 /_ -129.4   0.96759
   -          3        6.965 /_   80.6   0.96742    12.470        3-1     12.064 /_  110.6   0.96748
165442 ...... 1       6.9632 /_  -39.4   0.96717    12.470        1-2     12.062 /_   -9.4   0.96732
   -          2       6.9676 /_ -159.4   0.96778    12.470        2-3     12.066 /_ -129.4   0.96757
   -          3       6.9648 /_   80.6   0.96739    12.470        3-1     12.064 /_  110.6   0.96746
298160 ...... 1       6.9557 /_  -39.6   0.96613    12.470        1-2     12.049 /_   -9.5   0.96626
   -          2        6.963 /_ -159.5   0.96715    12.470        2-3     12.054 /_ -129.5   0.96668
   -          3       6.9549 /_   80.5   0.96602    12.470        3-1     12.051 /_  110.4   0.96637
165448 ...... 1         6.95 /_  -39.7   0.96534    12.470        1-2      12.04 /_   -9.6   0.96554
   -          2       6.9592 /_ -159.6   0.96661    12.470        2-3     12.046 /_ -129.6   0.96603
   -          3       6.9493 /_   80.4   0.96524    12.470        3-1     12.041 /_  110.4   0.96562
275354 ...... 1       6.9395 /_  -40.0   0.96388    12.470        1-2     12.022 /_   -9.8   0.96405
   -          2        6.953 /_ -159.8   0.96576    12.470        2-3     12.031 /_ -129.9   0.96479
   -          3       6.9352 /_   80.1   0.96328    12.470        3-1     12.022 /_  110.1   0.96409
165449 ...... 1       6.9387 /_  -40.0   0.96377    12.470        1-2      12.02 /_   -9.9   0.96393
   -          2       6.9526 /_ -159.8    0.9657    12.470        2-3      12.03 /_ -129.9    0.9647
   -          3       6.9341 /_   80.1   0.96313    12.470        3-1     12.021 /_  110.1   0.96397
165450 ...... 1       6.9387 /_  -40.0   0.96377    12.470        1-2      12.02 /_   -9.9   0.96393
   -          2       6.9526 /_ -159.8    0.9657    12.470        2-3      12.03 /_ -129.9    0.9647
   -          3       6.9341 /_   80.1   0.96313    12.470        3-1     12.021 /_  110.1   0.96397
165453 ...... 1       6.9351 /_  -40.1   0.96327    12.470        1-2     12.014 /_   -9.9    0.9634
   -          2       6.9499 /_ -159.9   0.96533    12.470        2-3     12.024 /_ -130.0   0.96424
   -          3       6.9295 /_   80.1   0.96249    12.470        3-1     12.014 /_  110.0   0.96344
165454 ...... 1       6.9345 /_  -40.1   0.96319    12.470        1-2     12.013 /_   -9.9   0.96332
   -          2       6.9493 /_ -159.9   0.96525    12.470        2-3     12.023 /_ -130.0   0.96416
   -          3       6.9289 /_   80.1   0.96241    12.470        3-1     12.013 /_  110.0   0.96336
165451 ...... 1        6.936 /_  -40.1   0.96339    12.470        1-2     12.015 /_   -9.9   0.96354
   -          2        6.951 /_ -159.9   0.96548    12.470        2-3     12.026 /_ -130.0   0.96438
   -          3       6.9304 /_   80.1   0.96261    12.470        3-1     12.016 /_  110.0   0.96357
238402 ...... 1       6.9342 /_  -40.1   0.96314    12.470        1-2     12.012 /_   -9.9   0.96327
   -          2        6.949 /_ -159.9    0.9652    12.470        2-3     12.022 /_ -130.0   0.96411
   -          3       6.9286 /_   80.1   0.96236    12.470        3-1     12.012 /_  110.0   0.96331
165455 ...... 1       6.9317 /_  -40.1   0.96279    12.470        1-2     12.008 /_   -9.9   0.96292
   -          2       6.9465 /_ -159.9   0.96485    12.470        2-3     12.018 /_ -130.0   0.96376
   -          3        6.926 /_   80.1   0.96201    12.470        3-1     12.008 /_  110.0   0.96296
165456 ...... 1       6.9317 /_  -40.1   0.96279    12.470        1-2     12.008 /_   -9.9   0.96292
   -          2       6.9465 /_ -159.9   0.96485    12.470        2-3     12.018 /_ -130.0   0.96376
   -          3       6.9261 /_   80.1   0.96201    12.470        3-1     12.008 /_  110.0   0.96296
165452 ...... 1       6.9327 /_  -40.1   0.96293    12.470        1-2     12.009 /_   -9.9   0.96306
   -          2       6.9475 /_ -159.9   0.96498    12.470        2-3      12.02 /_ -130.0    0.9639
   -          3        6.927 /_   80.1   0.96215    12.470        3-1      12.01 /_  110.0    0.9631
283563 ...... 1       6.9319 /_  -40.1   0.96282    12.470        1-2     12.008 /_   -9.9   0.96295
   -          2       6.9467 /_ -159.9   0.96487    12.470        2-3     12.018 /_ -130.0   0.96379
   -          3       6.9263 /_   80.1   0.96204    12.470        3-1     12.008 /_  110.0   0.96299
165457 ...... 1       6.9316 /_  -40.1   0.96278    12.470        1-2     12.007 /_   -9.9   0.96291
   -          2       6.9464 /_ -159.9   0.96483    12.470        2-3     12.018 /_ -130.0   0.96375
   -          3        6.926 /_   80.1     0.962    12.470        3-1     12.008 /_  110.0   0.96295
165458 ...... 1       6.9351 /_  -40.1   0.96327    12.470        1-2     12.014 /_   -9.9   0.96342
   -          2       6.9502 /_ -159.9   0.96536    12.470        2-3     12.024 /_ -130.0   0.96426
   -          3       6.9295 /_   80.1   0.96249    12.470        3-1     12.014 /_  110.0   0.96345
165459 ...... 1       6.9352 /_  -40.1   0.96328    12.470        1-2     12.014 /_   -9.9   0.96342
   -          2       6.9502 /_ -159.9   0.96537    12.470        2-3     12.024 /_ -130.0   0.96426
   -          3       6.9295 /_   80.1    0.9625    12.470        3-1     12.014 /_  110.0   0.96345
165460 ...... 1       6.9349 /_  -40.1   0.96325    12.470        1-2     12.013 /_   -9.9   0.96339
   -          2         6.95 /_ -159.9   0.96533    12.470        2-3     12.024 /_ -130.0   0.96423
   -          3       6.9293 /_   80.1   0.96246    12.470        3-1     12.014 /_  110.0   0.96342
165461 ...... 1        6.932 /_  -40.1   0.96284    12.470        1-2     12.008 /_   -9.9   0.96299
   -          2       6.9471 /_ -159.9   0.96493    12.470        2-3     12.019 /_ -130.0   0.96383
   -          3       6.9264 /_   80.1   0.96206    12.470        3-1     12.009 /_  110.0   0.96302
165463 ...... 1       6.9311 /_  -40.1   0.96272    12.470        1-2     12.007 /_   -9.9   0.96286
   -          2       6.9462 /_ -159.9    0.9648    12.470        2-3     12.017 /_ -130.0    0.9637
   -          3       6.9255 /_   80.1   0.96193    12.470        3-1     12.007 /_  110.0   0.96289
165462 ...... 1       6.9304 /_  -40.1   0.96262    12.470        1-2     12.006 /_   -9.9   0.96276
   -          2       6.9455 /_ -159.9   0.96471    12.470        2-3     12.016 /_ -130.0    0.9636
   -          3       6.9248 /_   80.1   0.96184    12.470        3-1     12.006 /_  110.0   0.96279
165465 ...... 1       6.9311 /_  -40.1   0.96271    12.470        1-2     12.007 /_   -9.9   0.96285
   -          2       6.9461 /_ -159.9   0.96479    12.470        2-3     12.017 /_ -130.0   0.96369
   -          3       6.9254 /_   80.1   0.96192    12.470        3-1     12.007 /_  110.0   0.96288
165466 ...... 1        6.932 /_  -40.1   0.96284    12.470        1-2     12.008 /_   -9.9   0.96299
   -          2       6.9471 /_ -159.9   0.96493    12.470        2-3     12.019 /_ -130.0   0.96382
   -          3       6.9264 /_   80.1   0.96206    12.470        3-1     12.009 /_  110.0   0.96301
165467 ...... 1       6.9233 /_  -40.1   0.96163    12.470        1-2     11.995 /_  -10.0   0.96192
   -          2       6.9412 /_ -159.9   0.96411    12.470        2-3     12.006 /_ -130.0   0.96277
   -          3        6.917 /_   80.0   0.96075    12.470        3-1     11.994 /_  110.0    0.9618
165468 ...... 1       6.9227 /_  -40.1   0.96155    12.470        1-2     11.994 /_  -10.0   0.96183
   -          2        6.941 /_ -159.9   0.96408    12.470        2-3     12.005 /_ -130.0   0.96271
   -          3        6.916 /_   80.0   0.96061    12.470        3-1     11.992 /_  109.9    0.9617
165475 ...... 1         6.92 /_  -40.2   0.96117    12.470        1-2     11.989 /_  -10.0   0.96144
   -          2       6.9386 /_ -159.9   0.96375    12.470        2-3         12 /_ -130.0   0.96235
   -          3       6.9129 /_   80.0   0.96018    12.470        3-1     11.988 /_  109.9   0.96131
165476 ...... 1         6.92 /_  -40.2   0.96117    12.470        1-2     11.989 /_  -10.0   0.96144
   -          2       6.9386 /_ -159.9   0.96375    12.470        2-3         12 /_ -130.0   0.96234
   -          3       6.9129 /_   80.0   0.96018    12.470        3-1     11.988 /_  109.9   0.96131
165477 ...... 1       6.9196 /_  -40.2   0.96112    12.470        1-2     11.989 /_  -10.0   0.96139
   -          2       6.9382 /_ -159.9    0.9637    12.470        2-3         12 /_ -130.0   0.96229
   -          3       6.9125 /_   80.0   0.96013    12.470        3-1     11.987 /_  109.9   0.96126
273626 ...... 1       6.9206 /_  -40.2   0.96125    12.470        1-2      11.99 /_  -10.0   0.96152
   -          2       6.9392 /_ -159.9   0.96383    12.470        2-3     12.001 /_ -130.0   0.96243
   -          3       6.9135 /_   80.0   0.96026    12.470        3-1     11.989 /_  109.9   0.96139
165469 ...... 1       6.9221 /_  -40.2   0.96147    12.470        1-2     11.993 /_  -10.0   0.96174
   -          2       6.9408 /_ -159.9   0.96406    12.470        2-3     12.004 /_ -130.0   0.96264
   -          3        6.915 /_   80.0   0.96047    12.470        3-1     11.991 /_  109.9   0.96161
165480 ...... 1       6.9214 /_  -40.2   0.96136    12.470        1-2     11.991 /_  -10.0   0.96163
   -          2       6.9407 /_ -160.0   0.96404    12.470        2-3     12.003 /_ -130.1   0.96257
   -          3       6.9136 /_   80.0   0.96029    12.470        3-1      11.99 /_  109.9   0.96149
165478 ...... 1       6.9209 /_  -40.2   0.96129    12.470        1-2     11.991 /_  -10.0   0.96155
   -          2       6.9406 /_ -160.0   0.96403    12.470        2-3     12.003 /_ -130.1   0.96252
   -          3       6.9127 /_   79.9   0.96016    12.470        3-1     11.989 /_  109.9   0.96141
165479 ...... 1       6.9204 /_  -40.2   0.96122    12.470        1-2      11.99 /_  -10.1   0.96147
   -          2       6.9405 /_ -160.0   0.96402    12.470        2-3     12.002 /_ -130.1   0.96247
   -          3       6.9118 /_   79.9   0.96003    12.470        3-1     11.988 /_  109.9   0.96132
165484 ...... 1       6.9206 /_  -40.2   0.96125    12.470        1-2      11.99 /_  -10.0   0.96151
   -          2       6.9403 /_ -160.0   0.96399    12.470        2-3     12.002 /_ -130.1   0.96248
   -          3       6.9124 /_   79.9   0.96012    12.470        3-1     11.988 /_  109.9   0.96137
165483 ...... 1       6.9206 /_  -40.2   0.96126    12.470        1-2      11.99 /_  -10.0   0.96152
   -          2       6.9403 /_ -160.0   0.96399    12.470        2-3     12.002 /_ -130.1   0.96249
   -          3       6.9125 /_   79.9   0.96013    12.470        3-1     11.988 /_  109.9   0.96137
261839 ...... 1       6.9206 /_  -40.2   0.96126    12.470        1-2      11.99 /_  -10.0   0.96152
   -          2       6.9404 /_ -160.0     0.964    12.470        2-3     12.002 /_ -130.1   0.96249
   -          3       6.9125 /_   79.9   0.96013    12.470        3-1     11.988 /_  109.9   0.96137
261838 ...... 1       6.9207 /_  -40.2   0.96126    12.470        1-2      11.99 /_  -10.0   0.96152
   -          2       6.9404 /_ -160.0     0.964    12.470        2-3     12.002 /_ -130.1   0.96249
   -          3       6.9125 /_   79.9   0.96013    12.470        3-1     11.988 /_  109.9   0.96138
165486 ...... 1       6.9202 /_  -40.2    0.9612    12.470        1-2     11.989 /_  -10.1   0.96146
   -          2       6.9405 /_ -160.0   0.96402    12.470        2-3     12.002 /_ -130.1   0.96247
   -          3       6.9118 /_   79.9   0.96003    12.470        3-1     11.988 /_  109.9   0.96131
165485 ...... 1       6.9202 /_  -40.2    0.9612    12.470        1-2     11.989 /_  -10.1   0.96146
   -          2       6.9406 /_ -160.0   0.96403    12.470        2-3     12.002 /_ -130.1   0.96247
   -          3       6.9118 /_   79.9   0.96003    12.470        3-1     11.988 /_  109.9   0.96131
165487 ...... 1       6.9197 /_  -40.3   0.96112    12.470        1-2     11.988 /_  -10.1   0.96136
   -          2       6.9404 /_ -160.0   0.96401    12.470        2-3     12.001 /_ -130.1    0.9624
   -          3       6.9104 /_   79.9   0.95984    12.470        3-1     11.986 /_  109.8    0.9612
165488 ...... 1        6.919 /_  -40.3   0.96103    12.470
165489 ...... 1        6.919 /_  -40.3   0.96103    12.470
165491 ...... 1       6.9186 /_  -40.3   0.96097    12.470
165490 ...... 1       6.9181 /_  -40.3   0.96091    12.470
165494 ...... 1       6.9177 /_  -40.3   0.96086    12.470
165492 ...... 1       6.9176 /_  -40.3   0.96084    12.470
165493 ...... 1       6.9174 /_  -40.3   0.96081    12.470
283952 ...... 1       6.9192 /_  -40.3   0.96106    12.470        1-2     11.987 /_  -10.1   0.96126
   -          2       6.9402 /_ -160.0   0.96397    12.470        2-3         12 /_ -130.2   0.96232
   -          3       6.9089 /_   79.8   0.95963    12.470        3-1     11.985 /_  109.8   0.96107
165500 ...... 1       6.9184 /_  -40.4   0.96094    12.470        1-2     11.985 /_  -10.2   0.96107
   -          2       6.9398 /_ -160.1   0.96392    12.470        2-3     11.999 /_ -130.2   0.96219
   -          3       6.9062 /_   79.8   0.95925    12.470        3-1     11.982 /_  109.7   0.96084
165501 ...... 1       6.9184 /_  -40.4   0.96094    12.470        1-2     11.985 /_  -10.2   0.96107
   -          2       6.9398 /_ -160.1   0.96392    12.470        2-3     11.999 /_ -130.2   0.96219
   -          3       6.9061 /_   79.8   0.95925    12.470        3-1     11.982 /_  109.7   0.96084
165495 ...... 1       6.9184 /_  -40.4   0.96095    12.470        1-2     11.985 /_  -10.2   0.96108
   -          2       6.9398 /_ -160.1   0.96392    12.470        2-3     11.999 /_ -130.2    0.9622
   -          3       6.9062 /_   79.8   0.95925    12.470        3-1     11.982 /_  109.7   0.96084
165503 ...... 1       6.9182 /_  -40.4   0.96093    12.470        1-2     11.984 /_  -10.2   0.96105
   -          2       6.9397 /_ -160.1    0.9639    12.470        2-3     11.998 /_ -130.2   0.96218
   -          3        6.906 /_   79.8   0.95923    12.470        3-1     11.981 /_  109.7   0.96082
165504 ...... 1       6.8646 /_  -40.7   0.95347    12.470        1-2     11.895 /_  -10.4   0.95388
   -          2        6.894 /_ -160.3   0.95756    12.470        2-3     11.905 /_ -130.6   0.95473
   -          3       6.8421 /_   79.5   0.95035    12.470        3-1     11.881 /_  109.5   0.95276
181883 ...... 1       6.8583 /_  -40.9    0.9526    12.470        1-2     11.883 /_  -10.7   0.95295
   -          2        6.888 /_ -160.6   0.95673    12.470        2-3     11.895 /_ -130.8   0.95385
   -          3       6.8345 /_   79.2    0.9493    12.470        3-1     11.869 /_  109.2   0.95182
158676 ...... 1       6.8583 /_  -40.9    0.9526    12.470        1-2     11.883 /_  -10.7   0.95295
   -          2        6.888 /_ -160.6   0.95673    12.470        2-3     11.895 /_ -130.8   0.95385
   -          3       6.8345 /_   79.2    0.9493    12.470        3-1     11.869 /_  109.2   0.95182
181889 ...... 1       6.8556 /_  -40.9   0.95222    12.470        1-2     11.879 /_  -10.7   0.95257
   -          2       6.8851 /_ -160.6   0.95632    12.470        2-3      11.89 /_ -130.8   0.95348
   -          3       6.8322 /_   79.2   0.94898    12.470        3-1     11.865 /_  109.2   0.95147
181890 ...... 1       6.8556 /_  -40.9   0.95222    12.470        1-2     11.878 /_  -10.7   0.95257
   -          2       6.8851 /_ -160.6   0.95632    12.470        2-3      11.89 /_ -130.8   0.95348
   -          3       6.8322 /_   79.2   0.94898    12.470        3-1     11.865 /_  109.2   0.95147
181891 ...... 1       6.8531 /_  -40.9   0.95188    12.470        1-2     11.874 /_  -10.7   0.95222
   -          2       6.8824 /_ -160.6   0.95595    12.470        2-3     11.886 /_ -130.8   0.95315
   -          3       6.8303 /_   79.2   0.94871    12.470        3-1     11.861 /_  109.2   0.95116
181892 ...... 1       6.8531 /_  -40.9   0.95187    12.470        1-2     11.874 /_  -10.7   0.95222
   -          2       6.8823 /_ -160.6   0.95594    12.470        2-3     11.886 /_ -130.8   0.95314
   -          3       6.8303 /_   79.2   0.94871    12.470        3-1     11.861 /_  109.2   0.95115
181884 ...... 1       6.8561 /_  -40.9    0.9523    12.470        1-2     11.879 /_  -10.7   0.95264
   -          2       6.8857 /_ -160.6    0.9564    12.470        2-3     11.891 /_ -130.8   0.95355
   -          3       6.8327 /_   79.2   0.94905    12.470        3-1     11.866 /_  109.2   0.95154
181886 ...... 1       6.8556 /_  -40.9   0.95223    12.470        1-2     11.879 /_  -10.7   0.95257
   -          2       6.8851 /_ -160.6   0.95633    12.470        2-3      11.89 /_ -130.8   0.95349
   -          3       6.8323 /_   79.2   0.94899    12.470        3-1     11.865 /_  109.2   0.95147
181888 ...... 1       6.8543 /_  -40.9   0.95205    12.470        1-2     11.876 /_  -10.7   0.95239
   -          2       6.8837 /_ -160.6   0.95612    12.470        2-3     11.888 /_ -130.8   0.95331
   -          3       6.8312 /_   79.2   0.94884    12.470        3-1     11.863 /_  109.2   0.95131
181885 ...... 1       6.8535 /_  -40.9   0.95193    12.470        1-2     11.875 /_  -10.7   0.95227
   -          2       6.8827 /_ -160.6   0.95599    12.470        2-3     11.886 /_ -130.8   0.95319
   -          3       6.8306 /_   79.2   0.94875    12.470        3-1     11.862 /_  109.2    0.9512
181887 ...... 1       6.8534 /_  -40.9   0.95192    12.470        1-2     11.875 /_  -10.7   0.95226
   -          2       6.8826 /_ -160.6   0.95598    12.470        2-3     11.886 /_ -130.8   0.95318
   -          3       6.8305 /_   79.2   0.94874    12.470        3-1     11.861 /_  109.2   0.95119
181893 ...... 1       6.8555 /_  -40.9   0.95222    12.470        1-2     11.878 /_  -10.7   0.95256
   -          2        6.885 /_ -160.6   0.95631    12.470        2-3      11.89 /_ -130.8   0.95347
   -          3       6.8322 /_   79.2   0.94898    12.470        3-1     11.865 /_  109.2   0.95146
181894 ...... 1        6.853 /_  -40.9   0.95187    12.470        1-2     11.874 /_  -10.7   0.95221
   -          2       6.8823 /_ -160.6   0.95593    12.470        2-3     11.886 /_ -130.8   0.95313
...
X_0862099 ... 1      0.11501 /_  -70.1   0.95768     0.208        1-2    0.19917 /_  -40.1   0.95755
   -          2      0.11499 /_  169.9   0.95754     0.208        2-3    0.19919 /_ -160.1   0.95765
   -          3      0.11502 /_   49.9   0.95778     0.208        3-1    0.19922 /_   79.9   0.95779
S1X_0862099 . 1      0.11448 /_  -70.1    0.9533     0.208        1-2    0.19829 /_  -40.1   0.95332
   -          2       0.1145 /_  169.9   0.95349     0.208        2-3    0.19839 /_ -160.1   0.95378
   -          3      0.11455 /_   49.9   0.95392     0.208        3-1    0.19835 /_   79.9   0.95361
S2X_0862099 . 1      0.11448 /_  -70.1    0.9533     0.208        1-2    0.19829 /_  -40.1   0.95332
   -          2       0.1145 /_  169.9   0.95349     0.208        2-3    0.19839 /_ -160.1   0.95378
   -          3      0.11455 /_   49.9   0.95392     0.208        3-1    0.19835 /_   79.9   0.95361
S3X_0862099 . 1      0.11448 /_  -70.1    0.9533     0.208        1-2    0.19829 /_  -40.1   0.95332
   -          2       0.1145 /_  169.9   0.95349     0.208        2-3    0.19839 /_ -160.1   0.95378
   -          3      0.11455 /_   49.9   0.95392     0.208        3-1    0.19835 /_   79.9   0.95361
X_1000663 ... 1      0.23088 /_  -39.5   0.96196     0.416        1-2     0.3999 /_   -9.5   0.96199
   -          2      0.23095 /_ -159.5   0.96227     0.416        2-3    0.39989 /_ -129.5   0.96198
   -          3       0.2308 /_   80.5   0.96167     0.416        3-1    0.39987 /_  110.5   0.96193
S1X_1000663 . 1      0.22994 /_  -39.5   0.95808     0.416        1-2    0.39823 /_   -9.5   0.95798
   -          2      0.22996 /_ -159.5   0.95815     0.416        2-3    0.39814 /_ -129.5   0.95777
   -          3      0.22978 /_   80.5   0.95738     0.416        3-1    0.39818 /_  110.5   0.95786
X_1000252 ... 2      0.23068 /_ -159.7   0.96115     0.416
S1X_1000252 . 2      0.22922 /_ -159.7   0.95506     0.416
X_1001746 ... 1      0.11461 /_  -70.7   0.95437     0.208        1-2    0.19845 /_  -40.7   0.95408
   -          2       0.1146 /_  169.3   0.95433     0.208        2-3    0.19861 /_ -160.7   0.95485
   -          3       0.1147 /_   49.3   0.95514     0.208        3-1    0.19862 /_   79.3   0.95491
S1X_1001746 . 1      0.11356 /_  -70.7    0.9456     0.208        1-2    0.19669 /_  -40.7   0.94562
   -          2      0.11363 /_  169.4   0.94626     0.208        2-3      0.197 /_ -160.7    0.9471
   -          3      0.11377 /_   49.3   0.94741     0.208        3-1    0.19688 /_   79.3   0.94655
S2X_1001746 . 1      0.11356 /_  -70.7    0.9456     0.208        1-2    0.19669 /_  -40.7   0.94562
   -          2      0.11363 /_  169.4   0.94626     0.208        2-3      0.197 /_ -160.7    0.9471
   -          3      0.11377 /_   49.3   0.94741     0.208        3-1    0.19688 /_   79.3   0.94655
S3X_1001746 . 1      0.11356 /_  -70.7    0.9456     0.208        1-2    0.19669 /_  -40.7   0.94562
   -          2      0.11363 /_  169.4   0.94626     0.208        2-3      0.197 /_ -160.7    0.9471
   -          3      0.11377 /_   49.3   0.94741     0.208        3-1    0.19688 /_   79.3   0.94655
X_1000502 ... 2      0.23058 /_ -160.0   0.96071     0.416
S1X_1000502 . 2      0.22761 /_ -160.0   0.94836     0.416
X_1000824 ... 1      0.22992 /_  -40.2   0.95798     0.416        1-2    0.39824 /_  -10.0     0.958
   -          2      0.23034 /_ -160.0   0.95973     0.416        2-3    0.39848 /_ -130.1   0.95857
   -          3      0.22961 /_   79.9   0.95669     0.416        3-1    0.39817 /_  109.9   0.95784
S1X_1000824 . 1      0.22961 /_  -40.2   0.95669     0.416        1-2    0.39768 /_  -10.0   0.95666
   -          2      0.23001 /_ -160.0   0.95836     0.416        2-3     0.3979 /_ -130.1   0.95717
   -          3      0.22927 /_   80.0   0.95527     0.416        3-1    0.39761 /_  109.9   0.95648
S2X_1000824 . 1      0.22961 /_  -40.2   0.95669     0.416        1-2    0.39768 /_  -10.0   0.95666
   -          2      0.23001 /_ -160.0   0.95836     0.416        2-3     0.3979 /_ -130.1   0.95717
   -          3      0.22927 /_   80.0   0.95527     0.416        3-1    0.39761 /_  109.9   0.95648
S3X_1000824 . 1      0.22961 /_  -40.2   0.95669     0.416        1-2    0.39768 /_  -10.0   0.95666
   -          2      0.23001 /_ -160.0   0.95836     0.416        2-3     0.3979 /_ -130.1   0.95717
   -          3      0.22927 /_   80.0   0.95527     0.416        3-1    0.39761 /_  109.9   0.95648
X_1001745 ... 1      0.11459 /_  -70.7   0.95422     0.208        1-2    0.19842 /_  -40.7   0.95393
   -          2      0.11459 /_  169.3   0.95418     0.208        2-3    0.19858 /_ -160.7    0.9547
   -          3      0.11468 /_   49.3   0.95499     0.208        3-1    0.19859 /_   79.3   0.95476
S1X_1001745 . 1      0.11354 /_  -70.7   0.94545     0.208        1-2    0.19666 /_  -40.7   0.94548
   -          2      0.11362 /_  169.3   0.94611     0.208        2-3    0.19697 /_ -160.7   0.94695
   -          3      0.11376 /_   49.3   0.94727     0.208        3-1    0.19685 /_   79.3    0.9464
S2X_1001745 . 1      0.11354 /_  -70.7   0.94545     0.208        1-2    0.19666 /_  -40.7   0.94548
   -          2      0.11362 /_  169.3   0.94611     0.208        2-3    0.19697 /_ -160.7   0.94695
   -          3      0.11376 /_   49.3   0.94727     0.208        3-1    0.19685 /_   79.3    0.9464
S3X_1001745 . 1      0.11354 /_  -70.7   0.94545     0.208        1-2    0.19666 /_  -40.7   0.94548
   -          2      0.11362 /_  169.3   0.94611     0.208        2-3    0.19697 /_ -160.7   0.94695
   -          3      0.11376 /_   49.3   0.94727     0.208        3-1    0.19685 /_   79.3    0.9464
X_1001329 ... 1      0.11453 /_  -70.7   0.95368     0.208        1-2    0.19831 /_  -40.7   0.95339
   -          2      0.11452 /_  169.4   0.95365     0.208        2-3    0.19847 /_ -160.6   0.95418
   -          3      0.11462 /_   49.3   0.95447     0.208        3-1    0.19848 /_   79.3   0.95422
S1X_1001329 . 1        0.114 /_  -70.7   0.94929     0.208        1-2    0.19743 /_  -40.6   0.94916
   -          2      0.11404 /_  169.4   0.94961     0.208        2-3    0.19766 /_ -160.6   0.95031
   -          3      0.11416 /_   49.3   0.95061     0.208        3-1    0.19761 /_   79.3   0.95004
S2X_1001329 . 1        0.114 /_  -70.7   0.94929     0.208        1-2    0.19743 /_  -40.6   0.94916
   -          2      0.11404 /_  169.4   0.94961     0.208        2-3    0.19766 /_ -160.6   0.95031
   -          3      0.11416 /_   49.3   0.95061     0.208        3-1    0.19761 /_   79.3   0.95004
S3X_1001329 . 1        0.114 /_  -70.7   0.94929     0.208        1-2    0.19743 /_  -40.6   0.94916
   -          2      0.11404 /_  169.4   0.94961     0.208        2-3    0.19766 /_ -160.6   0.95031
   -          3      0.11416 /_   49.3   0.95061     0.208        3-1    0.19761 /_   79.3   0.95004
X_1001359 ... 1      0.11415 /_  -71.0   0.95058     0.208        1-2    0.19766 /_  -41.0   0.95029
   -          2      0.11415 /_  169.0   0.95054     0.208        2-3    0.19782 /_ -161.0   0.95106
   -          3      0.11425 /_   49.0   0.95134     0.208        3-1    0.19783 /_   79.0   0.95111
S1X_1001359 . 1       0.1124 /_  -71.0   0.93599     0.208        1-2    0.19473 /_  -40.9   0.93621
   -          2      0.11254 /_  169.1   0.93711     0.208        2-3    0.19513 /_ -160.9   0.93815
   -          3       0.1127 /_   49.0   0.93846     0.208        3-1    0.19494 /_   79.0    0.9372
S2X_1001359 . 1       0.1124 /_  -71.0   0.93599     0.208        1-2    0.19473 /_  -40.9   0.93621
   -          2      0.11254 /_  169.1   0.93711     0.208        2-3    0.19513 /_ -160.9   0.93815
   -          3       0.1127 /_   49.0   0.93846     0.208        3-1    0.19494 /_   79.0    0.9372
S3X_1001359 . 1       0.1124 /_  -71.0   0.93599     0.208        1-2    0.19473 /_  -40.9   0.93621
   -          2      0.11254 /_  169.1   0.93711     0.208        2-3    0.19513 /_ -160.9   0.93815
   -          3       0.1127 /_   49.0   0.93846     0.208        3-1    0.19494 /_   79.0    0.9372
X_1001330 ... 1      0.11458 /_  -70.8    0.9541     0.208        1-2    0.19839 /_  -40.7   0.95381
   -          2      0.11457 /_  169.3   0.95407     0.208        2-3    0.19856 /_ -160.7    0.9546
   -          3      0.11467 /_   49.3   0.95489     0.208        3-1    0.19857 /_   79.3   0.95464
S1X_1001330 . 1      0.11405 /_  -70.7   0.94971     0.208        1-2    0.19751 /_  -40.7   0.94958
   -          2      0.11409 /_  169.3   0.95003     0.208        2-3    0.19775 /_ -160.7   0.95073
   -          3      0.11421 /_   49.3   0.95103     0.208        3-1     0.1977 /_   79.3   0.95046
S2X_1001330 . 1      0.11405 /_  -70.7   0.94971     0.208        1-2    0.19751 /_  -40.7   0.94958
   -          2      0.11409 /_  169.3   0.95003     0.208        2-3    0.19775 /_ -160.7   0.95073
   -          3      0.11421 /_   49.3   0.95103     0.208        3-1     0.1977 /_   79.3   0.95046
S3X_1001330 . 1      0.11405 /_  -70.7   0.94971     0.208        1-2    0.19751 /_  -40.7   0.94958
   -          2      0.11409 /_  169.3   0.95003     0.208        2-3    0.19775 /_ -160.7   0.95073
   -          3      0.11421 /_   49.3   0.95103     0.208        3-1     0.1977 /_   79.3   0.95046
S4X_1001330 . 1      0.11405 /_  -70.7   0.94971     0.208        1-2    0.19751 /_  -40.7   0.94958
   -          2      0.11409 /_  169.3   0.95003     0.208        2-3    0.19775 /_ -160.7   0.95073
   -          3      0.11421 /_   49.3   0.95103     0.208        3-1     0.1977 /_   79.3   0.95046
S5X_1001330 . 1      0.11405 /_  -70.7   0.94971     0.208        1-2    0.19751 /_  -40.7   0.94958
   -          2      0.11409 /_  169.3   0.95003     0.208        2-3    0.19775 /_ -160.7   0.95073
   -          3      0.11421 /_   49.3   0.95103     0.208        3-1     0.1977 /_   79.3   0.95046
S6X_1001330 . 1      0.11405 /_  -70.7   0.94971     0.208        1-2    0.19751 /_  -40.7   0.94958
   -          2      0.11409 /_  169.3   0.95003     0.208        2-3    0.19775 /_ -160.7   0.95073
   -          3      0.11421 /_   49.3   0.95103     0.208        3-1     0.1977 /_   79.3   0.95046
X_1000672 ... 1      0.22955 /_  -40.2   0.95644     0.416
S1X_1000672 . 1      0.22862 /_  -40.2   0.95256     0.416
X_1001708 ... 1      0.11399 /_  -71.1   0.94919     0.208        1-2    0.19738 /_  -41.1   0.94892
   -          2        0.114 /_  169.0    0.9493     0.208        2-3    0.19758 /_ -161.0    0.9499
   -          3       0.1141 /_   48.9   0.95015     0.208        3-1    0.19756 /_   78.9   0.94981
S1X_1001708 . 1      0.11136 /_  -71.1   0.92733     0.208        1-2    0.19298 /_  -41.0   0.92781
   -          2      0.11159 /_  169.0    0.9292     0.208        2-3    0.19355 /_ -161.0   0.93055
   -          3      0.11178 /_   48.9    0.9308     0.208        3-1    0.19323 /_   78.9   0.92898
S2X_1001708 . 1      0.11136 /_  -71.1   0.92733     0.208        1-2    0.19298 /_  -41.0   0.92781
   -          2      0.11159 /_  169.0    0.9292     0.208        2-3    0.19355 /_ -161.0   0.93055
   -          3      0.11178 /_   48.9    0.9308     0.208        3-1    0.19323 /_   78.9   0.92898
S3X_1001708 . 1      0.11136 /_  -71.1   0.92733     0.208        1-2    0.19298 /_  -41.0   0.92781
   -          2      0.11159 /_  169.0    0.9292     0.208        2-3    0.19355 /_ -161.0   0.93055
   -          3      0.11178 /_   48.9    0.9308     0.208        3-1    0.19323 /_   78.9   0.92898
X_1001345 ... 1      0.11428 /_  -70.8   0.95165     0.208        1-2    0.19789 /_  -40.8   0.95138
   -          2       0.1143 /_  169.2   0.95179     0.208        2-3    0.19811 /_ -160.8   0.95247
   -          3      0.11441 /_   49.2   0.95275     0.208        3-1    0.19809 /_   79.2   0.95235
S1X_1001345 . 1      0.11376 /_  -70.8   0.94727     0.208        1-2    0.19701 /_  -40.8   0.94715
   -          2      0.11382 /_  169.3   0.94776     0.208        2-3    0.19731 /_ -160.8    0.9486
   -          3      0.11395 /_   49.2   0.94889     0.208        3-1    0.19722 /_   79.2   0.94816
S2X_1001345 . 1      0.11376 /_  -70.8   0.94727     0.208        1-2    0.19701 /_  -40.8   0.94715
   -          2      0.11382 /_  169.3   0.94776     0.208        2-3    0.19731 /_ -160.8    0.9486
   -          3      0.11395 /_   49.2   0.94889     0.208        3-1    0.19722 /_   79.2   0.94816
S3X_1001345 . 1      0.11376 /_  -70.8   0.94727     0.208        1-2    0.19701 /_  -40.8   0.94715
   -          2      0.11382 /_  169.3   0.94776     0.208        2-3    0.19731 /_ -160.8    0.9486
   -          3      0.11395 /_   49.2   0.94889     0.208        3-1    0.19722 /_   79.2   0.94816
X_1000933 ... 1      0.11428 /_  -70.8   0.95161     0.208        1-2    0.19788 /_  -40.8   0.95133
   -          2      0.11429 /_  169.2   0.95175     0.208        2-3    0.19811 /_ -160.8   0.95243
   -          3      0.11441 /_   49.2   0.95271     0.208        3-1    0.19808 /_   79.2    0.9523
S1X_1000933 . 1      0.11417 /_  -70.8   0.95073     0.208        1-2     0.1977 /_  -40.8   0.95049
   -          2       0.1142 /_  169.2   0.95094     0.208        2-3    0.19794 /_ -160.8   0.95165
   -          3      0.11432 /_   49.2   0.95193     0.208        3-1     0.1979 /_   79.2   0.95146
S2X_1000933 . 1      0.11417 /_  -70.8   0.95073     0.208        1-2     0.1977 /_  -40.8   0.95049
   -          2       0.1142 /_  169.2   0.95094     0.208        2-3    0.19794 /_ -160.8   0.95165
   -          3      0.11432 /_   49.2   0.95193     0.208        3-1     0.1979 /_   79.2   0.95146
S3X_1000933 . 1      0.11417 /_  -70.8   0.95073     0.208        1-2     0.1977 /_  -40.8   0.95049
   -          2       0.1142 /_  169.2   0.95094     0.208        2-3    0.19794 /_ -160.8   0.95165
   -          3      0.11432 /_   49.2   0.95193     0.208        3-1     0.1979 /_   79.2   0.95146
S4X_1000933 . 1      0.11417 /_  -70.8   0.95073     0.208        1-2     0.1977 /_  -40.8   0.95049
   -          2       0.1142 /_  169.2   0.95094     0.208        2-3    0.19794 /_ -160.8   0.95165
   -          3      0.11432 /_   49.2   0.95193     0.208        3-1     0.1979 /_   79.2   0.95146
S5X_1000933 . 1      0.11417 /_  -70.8   0.95073     0.208        1-2     0.1977 /_  -40.8   0.95049
   -          2       0.1142 /_  169.2   0.95094     0.208        2-3    0.19794 /_ -160.8   0.95165
   -          3      0.11432 /_   49.2   0.95193     0.208        3-1     0.1979 /_   79.2   0.95146
S6X_1000933 . 1      0.11417 /_  -70.8   0.95073     0.208        1-2     0.1977 /_  -40.8   0.95049
   -          2       0.1142 /_  169.2   0.95094     0.208        2-3    0.19794 /_ -160.8   0.95165
   -          3      0.11432 /_   49.2   0.95193     0.208        3-1     0.1979 /_   79.2   0.95146
S7X_1000933 . 1      0.11417 /_  -70.8   0.95073     0.208        1-2     0.1977 /_  -40.8   0.95049
   -          2       0.1142 /_  169.2   0.95094     0.208        2-3    0.19794 /_ -160.8   0.95165
   -          3      0.11432 /_   49.2   0.95193     0.208        3-1     0.1979 /_   79.2   0.95146
S8X_1000933 . 1      0.11417 /_  -70.8   0.95073     0.208        1-2     0.1977 /_  -40.8   0.95049
   -          2       0.1142 /_  169.2   0.95094     0.208        2-3    0.19794 /_ -160.8   0.95165
   -          3      0.11432 /_   49.2   0.95193     0.208        3-1     0.1979 /_   79.2   0.95146
S9X_1000933 . 1      0.11417 /_  -70.8   0.95073     0.208        1-2     0.1977 /_  -40.8   0.95049
   -          2       0.1142 /_  169.2   0.95094     0.208        2-3    0.19794 /_ -160.8   0.95165
   -          3      0.11432 /_   49.2   0.95193     0.208        3-1     0.1979 /_   79.2   0.95146
S10X_1000933  1      0.11417 /_  -70.8   0.95073     0.208        1-2     0.1977 /_  -40.8   0.95049
   -          2       0.1142 /_  169.2   0.95094     0.208        2-3    0.19794 /_ -160.8   0.95165
   -          3      0.11432 /_   49.2   0.95193     0.208        3-1     0.1979 /_   79.2   0.95146
S11X_1000933  1      0.11417 /_  -70.8   0.95073     0.208        1-2     0.1977 /_  -40.8   0.95049
   -          2       0.1142 /_  169.2   0.95094     0.208        2-3    0.19794 /_ -160.8   0.95165
   -          3      0.11432 /_   49.2   0.95193     0.208        3-1     0.1979 /_   79.2   0.95146
S12X_1000933  1      0.11417 /_  -70.8   0.95073     0.208        1-2     0.1977 /_  -40.8   0.95049
   -          2       0.1142 /_  169.2   0.95094     0.208        2-3    0.19794 /_ -160.8   0.95165
   -          3      0.11432 /_   49.2   0.95193     0.208        3-1     0.1979 /_   79.2   0.95146
S13X_1000933  1      0.11417 /_  -70.8   0.95073     0.208        1-2     0.1977 /_  -40.8   0.95049
   -          2       0.1142 /_  169.2   0.95094     0.208        2-3    0.19794 /_ -160.8   0.95165
   -          3      0.11432 /_   49.2   0.95193     0.208        3-1     0.1979 /_   79.2   0.95146
S14X_1000933  1      0.11417 /_  -70.8   0.95073     0.208        1-2     0.1977 /_  -40.8   0.95049
   -          2       0.1142 /_  169.2   0.95094     0.208        2-3    0.19794 /_ -160.8   0.95165
   -          3      0.11432 /_   49.2   0.95193     0.208        3-1     0.1979 /_   79.2   0.95146
S15X_1000933  1      0.11417 /_  -70.8   0.95073     0.208        1-2     0.1977 /_  -40.8   0.95049
   -          2       0.1142 /_  169.2   0.95094     0.208        2-3    0.19794 /_ -160.8   0.95165
   -          3      0.11432 /_   49.2   0.95193     0.208        3-1     0.1979 /_   79.2   0.95146
X_1001823 ... 1      0.22946 /_  -40.4   0.95605     0.416
S1X_1001823 . 1      0.22808 /_  -40.4   0.95031     0.416
X_1001822 ... 1      0.22875 /_  -40.2   0.95313     0.416        1-2    0.39622 /_  -10.0   0.95315
   -          2      0.22932 /_ -159.9   0.95548     0.416        2-3    0.39648 /_ -130.1   0.95376
   -          3      0.22828 /_   80.0   0.95116     0.416        3-1     0.3961 /_  109.9   0.95284
S1X_1001822 . 1      0.22857 /_  -40.2   0.95235     0.416        1-2    0.39589 /_  -10.0   0.95235
   -          2      0.22912 /_ -159.9   0.95465     0.416        2-3    0.39613 /_ -130.1   0.95292
   -          3      0.22808 /_   80.0    0.9503     0.416        3-1    0.39576 /_  109.9   0.95203
X_1000042 ... 1      0.22948 /_  -40.5   0.95615     0.416
S1X_1000042 . 1      0.22895 /_  -40.5   0.95393     0.416
S2X_1000042 . 1      0.22895 /_  -40.5   0.95393     0.416
S3X_1000042 . 1      0.22895 /_  -40.5   0.95393     0.416
S4X_1000042 . 1      0.22895 /_  -40.5   0.95393     0.416
S5X_1000042 . 1      0.22895 /_  -40.5   0.95393     0.416
S6X_1000042 . 1      0.22895 /_  -40.5   0.95393     0.416
S7X_1000042 . 1      0.22895 /_  -40.5   0.95393     0.416
X_1000077 ... 1      0.22938 /_  -40.5   0.95573     0.416
S1X_1000077 . 1      0.22907 /_  -40.5   0.95443     0.416
S2X_1000077 . 1      0.22907 /_  -40.5   0.95443     0.416
S3X_1000077 . 1      0.22907 /_  -40.5   0.95443     0.416
S4X_1000077 . 1      0.22907 /_  -40.5   0.95443     0.416
S5X_1000077 . 1      0.22907 /_  -40.5   0.95443     0.416
S6X_1000077 . 1      0.22907 /_  -40.5   0.95443     0.416
X_1000474 ... 1      0.22937 /_  -40.5    0.9557     0.416
S1X_1000474 . 1        0.229 /_  -40.5   0.95414     0.416
S2X_1000474 . 1        0.229 /_  -40.5   0.95414     0.416
S3X_1000474 . 1        0.229 /_  -40.5   0.95414     0.416
S4X_1000474 . 1        0.229 /_  -40.5   0.95414     0.416
S5X_1000474 . 1        0.229 /_  -40.5   0.95414     0.416
X_1000043 ... 1      0.22938 /_  -40.5   0.95574     0.416
S1X_1000043 . 1      0.22907 /_  -40.5   0.95445     0.416
S2X_1000043 . 1      0.22907 /_  -40.5   0.95445     0.416
S3X_1000043 . 1      0.22907 /_  -40.5   0.95445     0.416
S4X_1000043 . 1      0.22907 /_  -40.5   0.95445     0.416
S5X_1000043 . 1      0.22907 /_  -40.5   0.95445     0.416
S6X_1000043 . 1      0.22907 /_  -40.5   0.95445     0.416
X_1001567 ... 1      0.11422 /_  -71.0   0.95111     0.208        1-2    0.19777 /_  -40.9   0.95081
   -          2      0.11425 /_  169.1   0.95134     0.208        2-3    0.19805 /_ -160.9   0.95215
   -          3      0.11438 /_   49.0   0.95244     0.208        3-1      0.198 /_   79.0   0.95193
S1X_1001567 . 1      0.11369 /_  -71.0   0.94672     0.208        1-2    0.19689 /_  -40.9   0.94659
   -          2      0.11376 /_  169.1   0.94731     0.208        2-3    0.19724 /_ -160.9   0.94827
   -          3      0.11391 /_   49.0   0.94858     0.208        3-1    0.19713 /_   79.0   0.94775
S2X_1001567 . 1      0.11369 /_  -71.0   0.94672     0.208        1-2    0.19689 /_  -40.9   0.94659
   -          2      0.11376 /_  169.1   0.94731     0.208        2-3    0.19724 /_ -160.9   0.94827
   -          3      0.11391 /_   49.0   0.94858     0.208        3-1    0.19713 /_   79.0   0.94775
S3X_1001567 . 1      0.11369 /_  -71.0   0.94672     0.208        1-2    0.19689 /_  -40.9   0.94659
   -          2      0.11376 /_  169.1   0.94731     0.208        2-3    0.19724 /_ -160.9   0.94827
   -          3      0.11391 /_   49.0   0.94858     0.208        3-1    0.19713 /_   79.0   0.94775
X_1000233 ... 2      0.22814 /_ -160.8   0.95057     0.416
S1X_1000233 . 2      0.22668 /_ -160.7   0.94448     0.416
X_1000569 ... 1      0.11323 /_  -71.6   0.94287     0.208        1-2    0.19613 /_  -41.5   0.94292
   -          2      0.11336 /_  168.5   0.94395     0.208        2-3    0.19654 /_ -161.5    0.9449
   -          3      0.11347 /_   48.4   0.94484     0.208        3-1    0.19632 /_   78.4   0.94384
S1X_1000569 . 1      0.11218 /_  -71.5   0.93412     0.208        1-2    0.19437 /_  -41.5   0.93448
   -          2      0.11239 /_  168.6   0.93591     0.208        2-3    0.19493 /_ -161.5   0.93716
   -          3      0.11254 /_   48.4    0.9371     0.208        3-1    0.19458 /_   78.4    0.9355
S2X_1000569 . 1      0.11218 /_  -71.5   0.93412     0.208        1-2    0.19437 /_  -41.5   0.93448
   -          2      0.11239 /_  168.6   0.93591     0.208        2-3    0.19493 /_ -161.5   0.93716
   -          3      0.11254 /_   48.4    0.9371     0.208        3-1    0.19458 /_   78.4    0.9355
S3X_1000569 . 1      0.11218 /_  -71.5   0.93412     0.208        1-2    0.19437 /_  -41.5   0.93448
   -          2      0.11239 /_  168.6   0.93591     0.208        2-3    0.19493 /_ -161.5   0.93716
   -          3      0.11254 /_   48.4    0.9371     0.208        3-1    0.19458 /_   78.4    0.9355
X_1000746 ... 1      0.11319 /_  -71.6   0.94256     0.208        1-2    0.19606 /_  -41.5   0.94259
   -          2      0.11332 /_  168.5    0.9436     0.208        2-3    0.19647 /_ -161.5   0.94455
   -          3      0.11342 /_   48.4   0.94451     0.208        3-1    0.19625 /_   78.4   0.94352
S1X_1000746 . 1      0.11214 /_  -71.5    0.9338     0.208        1-2     0.1943 /_  -41.5   0.93415
   -          2      0.11235 /_  168.6   0.93556     0.208        2-3    0.19486 /_ -161.5   0.93681
   -          3      0.11249 /_   48.4   0.93676     0.208        3-1    0.19452 /_   78.4   0.93518
S2X_1000746 . 1      0.11214 /_  -71.5    0.9338     0.208        1-2     0.1943 /_  -41.5   0.93415
   -          2      0.11235 /_  168.6   0.93556     0.208        2-3    0.19486 /_ -161.5   0.93681
   -          3      0.11249 /_   48.4   0.93676     0.208        3-1    0.19452 /_   78.4   0.93518
S3X_1000746 . 1      0.11214 /_  -71.5    0.9338     0.208        1-2     0.1943 /_  -41.5   0.93415
   -          2      0.11235 /_  168.6   0.93556     0.208        2-3    0.19486 /_ -161.5   0.93681
   -          3      0.11249 /_   48.4   0.93676     0.208        3-1    0.19452 /_   78.4   0.93518
X_1000608 ... 1      0.22738 /_  -41.1   0.94738     0.416
S1X_1000608 . 1      0.22703 /_  -41.1   0.94592     0.416
S2X_1000608 . 1      0.22703 /_  -41.1   0.94592     0.416
S3X_1000608 . 1      0.22703 /_  -41.1   0.94592     0.416
S4X_1000608 . 1      0.22703 /_  -41.1   0.94592     0.416
S5X_1000608 . 1      0.22703 /_  -41.1   0.94592     0.416
S6X_1000608 . 1      0.22703 /_  -41.1   0.94592     0.416
S7X_1000608 . 1      0.22703 /_  -41.1   0.94592     0.416
S8X_1000608 . 1      0.22703 /_  -41.1   0.94592     0.416
X_1000609 ... 1      0.22718 /_  -41.1   0.94656     0.416
S1X_1000609 . 1      0.22701 /_  -41.1   0.94585     0.416
S2X_1000609 . 1      0.22701 /_  -41.1   0.94585     0.416
S3X_1000609 . 1      0.22701 /_  -41.1   0.94585     0.416
S4X_1000609 . 1      0.22701 /_  -41.1   0.94585     0.416
S5X_1000609 . 1      0.22701 /_  -41.1   0.94585     0.416
S6X_1000609 . 1      0.22701 /_  -41.1   0.94585     0.416
S7X_1000609 . 1      0.22701 /_  -41.1   0.94585     0.416
S8X_1000609 . 1      0.22701 /_  -41.1   0.94585     0.416
S9X_1000609 . 1      0.22701 /_  -41.1   0.94585     0.416
S10X_1000609  1      0.22701 /_  -41.1   0.94585     0.416
S11X_1000609  1      0.22701 /_  -41.1   0.94585     0.416
X_1000610 ... 1      0.22724 /_  -41.2   0.94682     0.416
S1X_1000610 . 1       0.2269 /_  -41.1   0.94541     0.416
S2X_1000610 . 1       0.2269 /_  -41.1   0.94541     0.416
S3X_1000610 . 1       0.2269 /_  -41.1   0.94541     0.416
S4X_1000610 . 1       0.2269 /_  -41.1   0.94541     0.416
S5X_1000610 . 1       0.2269 /_  -41.1   0.94541     0.416
S6X_1000610 . 1       0.2269 /_  -41.1   0.94541     0.416
S7X_1000610 . 1       0.2269 /_  -41.1   0.94541     0.416
S8X_1000610 . 1       0.2269 /_  -41.1   0.94541     0.416
S9X_1000610 . 1       0.2269 /_  -41.1   0.94541     0.416
S10X_1000610  1       0.2269 /_  -41.1   0.94541     0.416
S11X_1000610  1       0.2269 /_  -41.1   0.94541     0.416
X_1000611 ... 1      0.22717 /_  -41.1   0.94651     0.416
S1X_1000611 . 1      0.22679 /_  -41.1   0.94496     0.416
S2X_1000611 . 1      0.22679 /_  -41.1   0.94496     0.416
S3X_1000611 . 1      0.22679 /_  -41.1   0.94496     0.416
S4X_1000611 . 1      0.22679 /_  -41.1   0.94496     0.416
S5X_1000611 . 1      0.22679 /_  -41.1   0.94496     0.416
X_1000612 ... 1      0.22723 /_  -41.2   0.94678     0.416
S1X_1000612 . 1      0.22676 /_  -41.1   0.94484     0.416
S2X_1000612 . 1      0.22676 /_  -41.1   0.94484     0.416
S3X_1000612 . 1      0.22676 /_  -41.1   0.94484     0.416
S4X_1000612 . 1      0.22676 /_  -41.1   0.94484     0.416
S5X_1000612 . 1      0.22676 /_  -41.1   0.94484     0.416
S6X_1000612 . 1      0.22676 /_  -41.1   0.94484     0.416
S7X_1000612 . 1      0.22676 /_  -41.1   0.94484     0.416
S8X_1000612 . 1      0.22676 /_  -41.1   0.94484     0.416
X_1000598 ... 3      0.22654 /_   79.1   0.94389     0.416
S1X_1000598 . 3       0.2262 /_   79.1   0.94247     0.416
S2X_1000598 . 3       0.2262 /_   79.1   0.94247     0.416
S3X_1000598 . 3       0.2262 /_   79.1   0.94247     0.416
S4X_1000598 . 3       0.2262 /_   79.1   0.94247     0.416
S5X_1000598 . 3       0.2262 /_   79.1   0.94247     0.416
S6X_1000598 . 3       0.2262 /_   79.1   0.94247     0.416
S7X_1000598 . 3       0.2262 /_   79.1   0.94247     0.416
S8X_1000598 . 3       0.2262 /_   79.1   0.94247     0.416
S9X_1000598 . 3       0.2262 /_   79.1   0.94247     0.416
X_1000599 ... 3      0.22654 /_   79.1   0.94389     0.416
S1X_1000599 . 3      0.22626 /_   79.1   0.94272     0.416
S2X_1000599 . 3      0.22626 /_   79.1   0.94272     0.416
S3X_1000599 . 3      0.22626 /_   79.1   0.94272     0.416
S4X_1000599 . 3      0.22626 /_   79.1   0.94272     0.416
S5X_1000599 . 3      0.22626 /_   79.1   0.94272     0.416
S6X_1000599 . 3      0.22626 /_   79.1   0.94272     0.416
S7X_1000599 . 3      0.22626 /_   79.1   0.94272     0.416
S8X_1000599 . 3      0.22626 /_   79.1   0.94272     0.416
S9X_1000599 . 3      0.22626 /_   79.1   0.94272     0.416
S10X_1000599  3      0.22626 /_   79.1   0.94272     0.416
S11X_1000599  3      0.22626 /_   79.1   0.94272     0.416
X_1000600 ... 3      0.22634 /_   79.0   0.94306     0.416
S1X_1000600 . 3      0.22611 /_   79.0   0.94211     0.416
S2X_1000600 . 3      0.22611 /_   79.0   0.94211     0.416
S3X_1000600 . 3      0.22611 /_   79.0   0.94211     0.416
S4X_1000600 . 3      0.22611 /_   79.0   0.94211     0.416
S5X_1000600 . 3      0.22611 /_   79.0   0.94211     0.416
S6X_1000600 . 3      0.22611 /_   79.0   0.94211     0.416
S7X_1000600 . 3      0.22611 /_   79.0   0.94211     0.416
S8X_1000600 . 3      0.22611 /_   79.0   0.94211     0.416
S9X_1000600 . 3      0.22611 /_   79.0   0.94211     0.416
X_1000602 ... 3      0.22634 /_   79.0   0.94305     0.416
S1X_1000602 . 3      0.22608 /_   79.0   0.94198     0.416
S2X_1000602 . 3      0.22608 /_   79.0   0.94198     0.416
S3X_1000602 . 3      0.22608 /_   79.0   0.94198     0.416
S4X_1000602 . 3      0.22608 /_   79.0   0.94198     0.416
S5X_1000602 . 3      0.22608 /_   79.0   0.94198     0.416
S6X_1000602 . 3      0.22608 /_   79.0   0.94198     0.416
S7X_1000602 . 3      0.22608 /_   79.0   0.94198     0.416
S8X_1000602 . 3      0.22608 /_   79.0   0.94198     0.416
X_1000601 ... 3      0.22634 /_   79.0   0.94305     0.416
S1X_1000601 . 3      0.22608 /_   79.0   0.94198     0.416
S2X_1000601 . 3      0.22608 /_   79.0   0.94198     0.416
S3X_1000601 . 3      0.22608 /_   79.0   0.94198     0.416
S4X_1000601 . 3      0.22608 /_   79.0   0.94198     0.416
S5X_1000601 . 3      0.22608 /_   79.0   0.94198     0.416
S6X_1000601 . 3      0.22608 /_   79.0   0.94198     0.416
S7X_1000601 . 3      0.22608 /_   79.0   0.94198     0.416
S8X_1000601 . 3      0.22608 /_   79.0   0.94198     0.416
X_1000603 ... 2      0.22824 /_ -160.8   0.95097     0.416
S1X_1000603 . 2      0.22781 /_ -160.7   0.94921     0.416
S2X_1000603 . 2      0.22781 /_ -160.7   0.94921     0.416
S3X_1000603 . 2      0.22781 /_ -160.7   0.94921     0.416
S4X_1000603 . 2      0.22781 /_ -160.7   0.94921     0.416
S5X_1000603 . 2      0.22781 /_ -160.7   0.94921     0.416
S6X_1000603 . 2      0.22781 /_ -160.7   0.94921     0.416
S7X_1000603 . 2      0.22781 /_ -160.7   0.94921     0.416
X_1000604 ... 2      0.22822 /_ -160.8   0.95091     0.416
S1X_1000604 . 2      0.22802 /_ -160.7   0.95009     0.416
S2X_1000604 . 2      0.22802 /_ -160.7   0.95009     0.416
S3X_1000604 . 2      0.22802 /_ -160.7   0.95009     0.416
S4X_1000604 . 2      0.22802 /_ -160.7   0.95009     0.416
S5X_1000604 . 2      0.22802 /_ -160.7   0.95009     0.416
S6X_1000604 . 2      0.22802 /_ -160.7   0.95009     0.416
S7X_1000604 . 2      0.22802 /_ -160.7   0.95009     0.416
S8X_1000604 . 2      0.22802 /_ -160.7   0.95009     0.416
S9X_1000604 . 2      0.22802 /_ -160.7   0.95009     0.416
S10X_1000604  2      0.22802 /_ -160.7   0.95009     0.416
S11X_1000604  2      0.22802 /_ -160.7   0.95009     0.416
S12X_1000604  2      0.22802 /_ -160.7   0.95009     0.416
S13X_1000604  2      0.22802 /_ -160.7   0.95009     0.416
S14X_1000604  2      0.22802 /_ -160.7   0.95009     0.416
S15X_1000604  2      0.22802 /_ -160.7   0.95009     0.416
X_1000605 ... 2      0.22809 /_ -160.8   0.95037     0.416
S1X_1000605 . 2      0.22773 /_ -160.8   0.94887     0.416
S2X_1000605 . 2      0.22773 /_ -160.8   0.94887     0.416
S3X_1000605 . 2      0.22773 /_ -160.8   0.94887     0.416
S4X_1000605 . 2      0.22773 /_ -160.8   0.94887     0.416
S5X_1000605 . 2      0.22773 /_ -160.8   0.94887     0.416
S6X_1000605 . 2      0.22773 /_ -160.8   0.94887     0.416
S7X_1000605 . 2      0.22773 /_ -160.8   0.94887     0.416
S8X_1000605 . 2      0.22773 /_ -160.8   0.94887     0.416
S9X_1000605 . 2      0.22773 /_ -160.8   0.94887     0.416
S10X_1000605  2      0.22773 /_ -160.8   0.94887     0.416
S11X_1000605  2      0.22773 /_ -160.8   0.94887     0.416
X_1000606 ... 2       0.2282 /_ -160.7    0.9508     0.416
S1X_1000606 . 2      0.22795 /_ -160.7   0.94977     0.416
S2X_1000606 . 2      0.22795 /_ -160.7   0.94977     0.416
S3X_1000606 . 2      0.22795 /_ -160.7   0.94977     0.416
S4X_1000606 . 2      0.22795 /_ -160.7   0.94977     0.416
S5X_1000606 . 2      0.22795 /_ -160.7   0.94977     0.416
S6X_1000606 . 2      0.22795 /_ -160.7   0.94977     0.416
S7X_1000606 . 2      0.22795 /_ -160.7   0.94977     0.416
S8X_1000606 . 2      0.22795 /_ -160.7   0.94977     0.416
S9X_1000606 . 2      0.22795 /_ -160.7   0.94977     0.416
S10X_1000606  2      0.22795 /_ -160.7   0.94977     0.416
S11X_1000606  2      0.22795 /_ -160.7   0.94977     0.416
S12X_1000606  2      0.22795 /_ -160.7   0.94977     0.416
X_1000607 ... 2      0.22802 /_ -160.8   0.95006     0.416
S1X_1000607 . 2      0.22777 /_ -160.8   0.94903     0.416
S2X_1000607 . 2      0.22777 /_ -160.8   0.94903     0.416
S3X_1000607 . 2      0.22777 /_ -160.8   0.94903     0.416
S4X_1000607 . 2      0.22777 /_ -160.8   0.94903     0.416
S5X_1000607 . 2      0.22777 /_ -160.8   0.94903     0.416
S6X_1000607 . 2      0.22777 /_ -160.8   0.94903     0.416
S7X_1000607 . 2      0.22777 /_ -160.8   0.94903     0.416
S8X_1000607 . 2      0.22777 /_ -160.8   0.94903     0.416
X_1001933 ... 1      0.11299 /_  -71.8   0.94089     0.208        1-2    0.19572 /_  -41.7   0.94095
   -          2      0.11313 /_  168.3   0.94203     0.208        2-3    0.19614 /_ -161.7     0.943
   -          3      0.11323 /_   48.2   0.94291     0.208        3-1    0.19591 /_   78.2   0.94189
S1X_1001933 . 1       0.1095 /_  -71.7   0.91182     0.208        1-2    0.18987 /_  -41.6   0.91283
   -          2      0.10992 /_  168.4   0.91536     0.208        2-3    0.19078 /_ -161.6   0.91721
   -          3      0.11013 /_   48.2   0.91704     0.208        3-1    0.19015 /_   78.2   0.91418
S2X_1001933 . 1       0.1095 /_  -71.7   0.91182     0.208        1-2    0.18987 /_  -41.6   0.91283
   -          2      0.10992 /_  168.4   0.91536     0.208        2-3    0.19078 /_ -161.6   0.91721
   -          3      0.11013 /_   48.2   0.91704     0.208        3-1    0.19015 /_   78.2   0.91418
S3X_1001933 . 1       0.1095 /_  -71.7   0.91182     0.208        1-2    0.18987 /_  -41.6   0.91283
   -          2      0.10992 /_  168.4   0.91536     0.208        2-3    0.19078 /_ -161.6   0.91721
   -          3      0.11013 /_   48.2   0.91704     0.208        3-1    0.19015 /_   78.2   0.91418
X_1000198 ... 1      0.22741 /_  -40.9   0.94752     0.416
S1X_1000198 . 1      0.22704 /_  -40.9   0.94597     0.416
X_1000548 ... 1      0.22753 /_  -41.1     0.948     0.416
S1X_1000548 . 1      0.22566 /_  -41.1   0.94024     0.416
X_1000069 ... 1       0.1133 /_  -71.5    0.9435     0.208        1-2    0.19626 /_  -41.5   0.94357
   -          2      0.11344 /_  168.6   0.94465     0.208        2-3    0.19669 /_ -161.5   0.94563
   -          3      0.11355 /_   48.4   0.94556     0.208        3-1    0.19646 /_   78.4    0.9445
S1X_1000069 . 1      0.11278 /_  -71.5   0.93912     0.208        1-2    0.19538 /_  -41.5   0.93935
   -          2      0.11296 /_  168.6   0.94063     0.208        2-3    0.19589 /_ -161.5   0.94176
   -          3      0.11309 /_   48.4   0.94169     0.208        3-1    0.19559 /_   78.4   0.94033
S2X_1000069 . 1      0.11278 /_  -71.5   0.93912     0.208        1-2    0.19538 /_  -41.5   0.93935
   -          2      0.11296 /_  168.6   0.94063     0.208        2-3    0.19589 /_ -161.5   0.94176
   -          3      0.11309 /_   48.4   0.94169     0.208        3-1    0.19559 /_   78.4   0.94033
S3X_1000069 . 1      0.11278 /_  -71.5   0.93912     0.208        1-2    0.19538 /_  -41.5   0.93935
   -          2      0.11296 /_  168.6   0.94063     0.208        2-3    0.19589 /_ -161.5   0.94176
   -          3      0.11309 /_   48.4   0.94169     0.208        3-1    0.19559 /_   78.4   0.94033
S4X_1000069 . 1      0.11278 /_  -71.5   0.93912     0.208        1-2    0.19538 /_  -41.5   0.93935
   -          2      0.11296 /_  168.6   0.94063     0.208        2-3    0.19589 /_ -161.5   0.94176
   -          3      0.11309 /_   48.4   0.94169     0.208        3-1    0.19559 /_   78.4   0.94033
S5X_1000069 . 1      0.11278 /_  -71.5   0.93912     0.208        1-2    0.19538 /_  -41.5   0.93935
   -          2      0.11296 /_  168.6   0.94063     0.208        2-3    0.19589 /_ -161.5   0.94176
   -          3      0.11309 /_   48.4   0.94169     0.208        3-1    0.19559 /_   78.4   0.94033
S6X_1000069 . 1      0.11278 /_  -71.5   0.93912     0.208        1-2    0.19538 /_  -41.5   0.93935
   -          2      0.11296 /_  168.6   0.94063     0.208        2-3    0.19589 /_ -161.5   0.94176
   -          3      0.11309 /_   48.4   0.94169     0.208        3-1    0.19559 /_   78.4   0.94033
X_1000531 ... 1      0.22776 /_  -41.0   0.94896     0.416
S1X_1000531 . 1       0.2275 /_  -40.9    0.9479     0.416
S2X_1000531 . 1       0.2275 /_  -40.9    0.9479     0.416
S3X_1000531 . 1       0.2275 /_  -40.9    0.9479     0.416
S4X_1000531 . 1       0.2275 /_  -40.9    0.9479     0.416
S5X_1000531 . 1       0.2275 /_  -40.9    0.9479     0.416
S6X_1000531 . 1       0.2275 /_  -40.9    0.9479     0.416
S7X_1000531 . 1       0.2275 /_  -40.9    0.9479     0.416
S8X_1000531 . 1       0.2275 /_  -40.9    0.9479     0.416
S9X_1000531 . 1       0.2275 /_  -40.9    0.9479     0.416
S10X_1000531  1       0.2275 /_  -40.9    0.9479     0.416
S11X_1000531  1       0.2275 /_  -40.9    0.9479     0.416
X_1000533 ... 1      0.22775 /_  -41.0   0.94894     0.416
S1X_1000533 . 1       0.2275 /_  -40.9   0.94788     0.416
S2X_1000533 . 1       0.2275 /_  -40.9   0.94788     0.416
S3X_1000533 . 1       0.2275 /_  -40.9   0.94788     0.416
S4X_1000533 . 1       0.2275 /_  -40.9   0.94788     0.416
S5X_1000533 . 1       0.2275 /_  -40.9   0.94788     0.416
S6X_1000533 . 1       0.2275 /_  -40.9   0.94788     0.416
S7X_1000533 . 1       0.2275 /_  -40.9   0.94788     0.416
S8X_1000533 . 1       0.2275 /_  -40.9   0.94788     0.416
S9X_1000533 . 1       0.2275 /_  -40.9   0.94788     0.416
S10X_1000533  1       0.2275 /_  -40.9   0.94788     0.416
S11X_1000533  1       0.2275 /_  -40.9   0.94788     0.416
X_1000532 ... 1      0.22765 /_  -41.0   0.94851     0.416
S1X_1000532 . 1      0.22731 /_  -41.0    0.9471     0.416
S2X_1000532 . 1      0.22731 /_  -41.0    0.9471     0.416
S3X_1000532 . 1      0.22731 /_  -41.0    0.9471     0.416
S4X_1000532 . 1      0.22731 /_  -41.0    0.9471     0.416
S5X_1000532 . 1      0.22731 /_  -41.0    0.9471     0.416
S6X_1000532 . 1      0.22731 /_  -41.0    0.9471     0.416
S7X_1000532 . 1      0.22731 /_  -41.0    0.9471     0.416
S8X_1000532 . 1      0.22731 /_  -41.0    0.9471     0.416
S9X_1000532 . 1      0.22731 /_  -41.0    0.9471     0.416
S10X_1000532  1      0.22731 /_  -41.0    0.9471     0.416
S11X_1000532  1      0.22731 /_  -41.0    0.9471     0.416
X_1000582 ... 1      0.22758 /_  -41.0   0.94824     0.416
S1X_1000582 . 1      0.22732 /_  -41.0   0.94713     0.416
S2X_1000582 . 1      0.22732 /_  -41.0   0.94713     0.416
S3X_1000582 . 1      0.22732 /_  -41.0   0.94713     0.416
S4X_1000582 . 1      0.22732 /_  -41.0   0.94713     0.416
S5X_1000582 . 1      0.22732 /_  -41.0   0.94713     0.416
S6X_1000582 . 1      0.22732 /_  -41.0   0.94713     0.416
S7X_1000582 . 1      0.22732 /_  -41.0   0.94713     0.416
X_1000581 ... 1      0.22757 /_  -41.0   0.94821     0.416
S1X_1000581 . 1      0.22734 /_  -41.0   0.94723     0.416
S2X_1000581 . 1      0.22734 /_  -41.0   0.94723     0.416
S3X_1000581 . 1      0.22734 /_  -41.0   0.94723     0.416
S4X_1000581 . 1      0.22734 /_  -41.0   0.94723     0.416
S5X_1000581 . 1      0.22734 /_  -41.0   0.94723     0.416
...